<?xml version="1.0" encoding="UTF-8"?>
<!DOCTYPE network SYSTEM "http://www.matsim.org/files/dtd/network_v2.dtd">

<!-- ====================================================================== -->

<network>
  <links>
        <link id="0" from="177356801" to="177305061" length="95.19200000000001" freespeed="4.166666666666667" capacity="600" permlanes="1" oneway="1" modes="car">
            <attributes>
                <attribute name="highway" class="java.lang.String">residential</attribute>
      </attributes>
    </link>
        <link id="1" from="177305061" to="177305065" length="87.436" freespeed="6.944444444444445" capacity="600" permlanes="1" oneway="1" modes="car">
            <attributes>
                <attribute name="highway" class="java.lang.String">tertiary</attribute>
      </attributes>
    </link>
        <link id="2" from="177336322" to="177336324" length="107.37299999999999" freespeed="4.166666666666667" capacity="600" permlanes="1" oneway="1" modes="car">
            <attributes>
                <attribute name="highway" class="java.lang.String">residential</attribute>
      </attributes>
    </link>
        <link id="3" from="177336322" to="177305204" length="77.371" freespeed="4.166666666666667" capacity="600" permlanes="1" oneway="1" modes="car">
            <attributes>
                <attribute name="highway" class="java.lang.String">residential</attribute>
      </attributes>
    </link>
        <link id="4" from="177336324" to="177305202" length="74.739" freespeed="4.166666666666667" capacity="600" permlanes="1" oneway="1" modes="car">
            <attributes>
                <attribute name="highway" class="java.lang.String">residential</attribute>
      </attributes>
    </link>
        <link id="5" from="177305204" to="177295446" length="72.727" freespeed="4.166666666666667" capacity="600" permlanes="1" oneway="1" modes="car">
            <attributes>
                <attribute name="highway" class="java.lang.String">residential</attribute>
      </attributes>
    </link>
        <link id="6" from="177305204" to="177305206" length="77.171" freespeed="4.166666666666667" capacity="600" permlanes="1" oneway="1" modes="car">
            <attributes>
                <attribute name="highway" class="java.lang.String">residential</attribute>
      </attributes>
    </link>
        <link id="7" from="177305202" to="177305204" length="107.467" freespeed="4.166666666666667" capacity="600" permlanes="1" oneway="1" modes="car">
            <attributes>
                <attribute name="highway" class="java.lang.String">residential</attribute>
      </attributes>
    </link>
        <link id="8" from="177332232" to="177333436" length="109.59" freespeed="8.333333333333334" capacity="1000" permlanes="1" oneway="1" modes="car">
            <attributes>
                <attribute name="highway" class="java.lang.String">secondary</attribute>
      </attributes>
    </link>
        <link id="9" from="177333436" to="177360761" length="110.524" freespeed="8.333333333333334" capacity="1000" permlanes="1" oneway="1" modes="car">
            <attributes>
                <attribute name="highway" class="java.lang.String">secondary</attribute>
      </attributes>
    </link>
        <link id="10" from="490377225" to="823985465" length="153.98000000000002" freespeed="8.333333333333334" capacity="1000" permlanes="1" oneway="1" modes="car">
            <attributes>
                <attribute name="highway" class="java.lang.String">secondary</attribute>
      </attributes>
    </link>
        <link id="11" from="823985465" to="823985472" length="75.493" freespeed="16.666666666666668" capacity="1000" permlanes="1" oneway="1" modes="car">
            <attributes>
                <attribute name="highway" class="java.lang.String">primary_link</attribute>
      </attributes>
    </link>
        <link id="12" from="823985465" to="823985667" length="47.92" freespeed="8.333333333333334" capacity="1000" permlanes="1" oneway="1" modes="car">
            <attributes>
                <attribute name="highway" class="java.lang.String">secondary</attribute>
      </attributes>
    </link>
        <link id="13" from="177254419" to="177317913" length="38.531" freespeed="4.166666666666667" capacity="600" permlanes="1" oneway="1" modes="car">
            <attributes>
                <attribute name="highway" class="java.lang.String">residential</attribute>
      </attributes>
    </link>
        <link id="14" from="177317913" to="177363828" length="175.519" freespeed="4.166666666666667" capacity="600" permlanes="1" oneway="1" modes="car">
            <attributes>
                <attribute name="highway" class="java.lang.String">residential</attribute>
      </attributes>
    </link>
        <link id="15" from="177363828" to="177385773" length="78.047" freespeed="4.166666666666667" capacity="600" permlanes="1" oneway="1" modes="car">
            <attributes>
                <attribute name="highway" class="java.lang.String">residential</attribute>
      </attributes>
    </link>
        <link id="16" from="177387551" to="177305065" length="128.272" freespeed="4.166666666666667" capacity="600" permlanes="1" oneway="1" modes="car">
            <attributes>
                <attribute name="highway" class="java.lang.String">residential</attribute>
      </attributes>
    </link>
        <link id="17" from="177387551" to="177386276" length="156.965" freespeed="4.166666666666667" capacity="600" permlanes="1" oneway="1" modes="car">
            <attributes>
                <attribute name="highway" class="java.lang.String">residential</attribute>
      </attributes>
    </link>
        <link id="18" from="177305065" to="177305069" length="160.602" freespeed="6.944444444444445" capacity="600" permlanes="1" oneway="1" modes="car">
            <attributes>
                <attribute name="highway" class="java.lang.String">tertiary</attribute>
      </attributes>
    </link>
        <link id="19" from="177386276" to="7595217646" length="73.353" freespeed="4.166666666666667" capacity="600" permlanes="1" oneway="1" modes="car">
            <attributes>
                <attribute name="highway" class="java.lang.String">residential</attribute>
      </attributes>
    </link>
        <link id="20" from="3663134757" to="817841194" length="81.16499999999999" freespeed="8.333333333333334" capacity="1000" permlanes="1" oneway="1" modes="car">
            <attributes>
                <attribute name="highway" class="java.lang.String">secondary</attribute>
      </attributes>
    </link>
        <link id="21" from="3663134757" to="177381543" length="345.543" freespeed="8.333333333333334" capacity="1000" permlanes="1" oneway="1" modes="car">
            <attributes>
                <attribute name="highway" class="java.lang.String">secondary</attribute>
      </attributes>
    </link>
        <link id="22" from="817841194" to="817841164" length="35.120000000000005" freespeed="8.333333333333334" capacity="1000" permlanes="1" oneway="1" modes="car">
            <attributes>
                <attribute name="highway" class="java.lang.String">secondary</attribute>
      </attributes>
    </link>
        <link id="23" from="177381543" to="177381545" length="60.166" freespeed="4.166666666666667" capacity="600" permlanes="1" oneway="1" modes="car">
            <attributes>
                <attribute name="highway" class="java.lang.String">residential</attribute>
      </attributes>
    </link>
        <link id="24" from="177381543" to="177298358" length="119.761" freespeed="8.333333333333334" capacity="1000" permlanes="1" oneway="1" modes="car">
            <attributes>
                <attribute name="highway" class="java.lang.String">secondary</attribute>
      </attributes>
    </link>
        <link id="25" from="3663134764" to="3663134757" length="78.539" freespeed="8.333333333333334" capacity="1000" permlanes="1" oneway="1" modes="car">
            <attributes>
                <attribute name="highway" class="java.lang.String">secondary</attribute>
      </attributes>
    </link>
        <link id="26" from="3663134764" to="817841194" length="15.986" freespeed="8.333333333333334" capacity="1000" permlanes="1" oneway="1" modes="car">
            <attributes>
                <attribute name="highway" class="java.lang.String">secondary</attribute>
      </attributes>
    </link>
        <link id="27" from="6083045429" to="5462115043" length="37.402" freespeed="4.166666666666667" capacity="600" permlanes="1" oneway="1" modes="car">
            <attributes>
                <attribute name="highway" class="java.lang.String">residential</attribute>
      </attributes>
    </link>
        <link id="28" from="5462115043" to="9882595633" length="48.60900000000001" freespeed="4.166666666666667" capacity="600" permlanes="1" oneway="1" modes="car">
            <attributes>
                <attribute name="highway" class="java.lang.String">residential</attribute>
      </attributes>
    </link>
        <link id="29" from="6050322494" to="1223369530" length="83.75999999999999" freespeed="33.333333333333336" capacity="2000" permlanes="2" oneway="1" modes="car">
            <attributes>
                <attribute name="highway" class="java.lang.String">motorway</attribute>
      </attributes>
    </link>
        <link id="30" from="1223369530" to="1013061312" length="74.98700000000001" freespeed="22.22222222222222" capacity="1500" permlanes="1" oneway="1" modes="car">
            <attributes>
                <attribute name="highway" class="java.lang.String">motorway_link</attribute>
      </attributes>
    </link>
        <link id="31" from="1223369530" to="1223370160" length="104.354" freespeed="33.333333333333336" capacity="2000" permlanes="2" oneway="1" modes="car">
            <attributes>
                <attribute name="highway" class="java.lang.String">motorway</attribute>
      </attributes>
    </link>
        <link id="32" from="177397828" to="177236666" length="103.366" freespeed="6.944444444444445" capacity="600" permlanes="1" oneway="1" modes="car">
            <attributes>
                <attribute name="highway" class="java.lang.String">tertiary</attribute>
      </attributes>
    </link>
        <link id="33" from="177236666" to="177318505" length="147.795" freespeed="6.944444444444445" capacity="600" permlanes="1" oneway="1" modes="car">
            <attributes>
                <attribute name="highway" class="java.lang.String">tertiary</attribute>
      </attributes>
    </link>
        <link id="34" from="177236666" to="565006990" length="333.90099999999995" freespeed="4.166666666666667" capacity="600" permlanes="1" oneway="1" modes="car">
            <attributes>
                <attribute name="highway" class="java.lang.String">unclassified</attribute>
      </attributes>
    </link>
        <link id="35" from="177352776" to="177352778" length="112.73299999999999" freespeed="4.166666666666667" capacity="600" permlanes="1" oneway="1" modes="car">
            <attributes>
                <attribute name="highway" class="java.lang.String">residential</attribute>
      </attributes>
    </link>
        <link id="36" from="177352776" to="388454731" length="113.589" freespeed="4.166666666666667" capacity="600" permlanes="1" oneway="1" modes="car">
            <attributes>
                <attribute name="highway" class="java.lang.String">residential</attribute>
      </attributes>
    </link>
        <link id="37" from="177352778" to="177355967" length="112.51599999999999" freespeed="8.333333333333334" capacity="1000" permlanes="1" oneway="1" modes="car">
            <attributes>
                <attribute name="highway" class="java.lang.String">secondary</attribute>
      </attributes>
    </link>
        <link id="38" from="388454731" to="177355967" length="112.468" freespeed="4.166666666666667" capacity="600" permlanes="1" oneway="1" modes="car">
            <attributes>
                <attribute name="highway" class="java.lang.String">residential</attribute>
      </attributes>
    </link>
        <link id="39" from="388454731" to="177342376" length="110.66999999999999" freespeed="4.166666666666667" capacity="600" permlanes="1" oneway="1" modes="car">
            <attributes>
                <attribute name="highway" class="java.lang.String">residential</attribute>
      </attributes>
    </link>
        <link id="40" from="177355967" to="177342378" length="112.955" freespeed="8.333333333333334" capacity="1000" permlanes="1" oneway="1" modes="car">
            <attributes>
                <attribute name="highway" class="java.lang.String">secondary</attribute>
      </attributes>
    </link>
        <link id="41" from="177352786" to="177352788" length="111.434" freespeed="4.166666666666667" capacity="600" permlanes="1" oneway="1" modes="car">
            <attributes>
                <attribute name="highway" class="java.lang.String">residential</attribute>
      </attributes>
    </link>
        <link id="42" from="177352788" to="177342372" length="223.31900000000002" freespeed="4.166666666666667" capacity="600" permlanes="1" oneway="1" modes="car">
            <attributes>
                <attribute name="highway" class="java.lang.String">residential</attribute>
      </attributes>
    </link>
        <link id="43" from="565006420" to="564996300" length="67.57600000000001" freespeed="22.22222222222222" capacity="1000" permlanes="1" oneway="1" modes="car">
            <attributes>
                <attribute name="highway" class="java.lang.String">primary</attribute>
      </attributes>
    </link>
        <link id="44" from="564996300" to="564996287" length="308.78999999999996" freespeed="22.22222222222222" capacity="1000" permlanes="1" oneway="1" modes="car">
            <attributes>
                <attribute name="highway" class="java.lang.String">primary</attribute>
      </attributes>
    </link>
        <link id="45" from="177342372" to="177342374" length="114.479" freespeed="4.166666666666667" capacity="600" permlanes="1" oneway="1" modes="car">
            <attributes>
                <attribute name="highway" class="java.lang.String">unclassified</attribute>
      </attributes>
    </link>
        <link id="46" from="177295446" to="817828489" length="359.443" freespeed="4.166666666666667" capacity="600" permlanes="1" oneway="1" modes="car">
            <attributes>
                <attribute name="highway" class="java.lang.String">residential</attribute>
      </attributes>
    </link>
        <link id="47" from="817828489" to="817828636" length="29.356" freespeed="8.333333333333334" capacity="1000" permlanes="1" oneway="1" modes="car">
            <attributes>
                <attribute name="highway" class="java.lang.String">secondary</attribute>
      </attributes>
    </link>
        <link id="48" from="177287263" to="177303078" length="100.55600000000001" freespeed="4.166666666666667" capacity="600" permlanes="1" oneway="1" modes="car">
            <attributes>
                <attribute name="highway" class="java.lang.String">residential</attribute>
      </attributes>
    </link>
        <link id="49" from="177303078" to="3417086301" length="110.025" freespeed="4.166666666666667" capacity="600" permlanes="1" oneway="1" modes="car">
            <attributes>
                <attribute name="highway" class="java.lang.String">residential</attribute>
      </attributes>
    </link>
        <link id="50" from="177303078" to="177303072" length="234.00900000000004" freespeed="4.166666666666667" capacity="600" permlanes="1" oneway="1" modes="car">
            <attributes>
                <attribute name="highway" class="java.lang.String">residential</attribute>
      </attributes>
    </link>
        <link id="51" from="565010531" to="564996243" length="130.62399999999997" freespeed="22.22222222222222" capacity="1000" permlanes="1" oneway="1" modes="car">
            <attributes>
                <attribute name="highway" class="java.lang.String">primary</attribute>
      </attributes>
    </link>
        <link id="52" from="564996243" to="439950880" length="221.35499999999996" freespeed="22.22222222222222" capacity="1000" permlanes="1" oneway="1" modes="car">
            <attributes>
                <attribute name="highway" class="java.lang.String">primary</attribute>
      </attributes>
    </link>
        <link id="53" from="177352806" to="177352808" length="113.03999999999999" freespeed="4.166666666666667" capacity="600" permlanes="1" oneway="1" modes="car">
            <attributes>
                <attribute name="highway" class="java.lang.String">residential</attribute>
      </attributes>
    </link>
        <link id="54" from="177352806" to="177355952" length="111.094" freespeed="4.166666666666667" capacity="600" permlanes="1" oneway="1" modes="car">
            <attributes>
                <attribute name="highway" class="java.lang.String">residential</attribute>
      </attributes>
    </link>
        <link id="55" from="177352808" to="177355954" length="112.29899999999999" freespeed="4.166666666666667" capacity="600" permlanes="1" oneway="1" modes="car">
            <attributes>
                <attribute name="highway" class="java.lang.String">residential</attribute>
      </attributes>
    </link>
        <link id="56" from="177352808" to="177352810" length="110.78" freespeed="4.166666666666667" capacity="600" permlanes="1" oneway="1" modes="car">
            <attributes>
                <attribute name="highway" class="java.lang.String">residential</attribute>
      </attributes>
    </link>
        <link id="57" from="177355952" to="177342364" length="111.71" freespeed="4.166666666666667" capacity="600" permlanes="1" oneway="1" modes="car">
            <attributes>
                <attribute name="highway" class="java.lang.String">residential</attribute>
      </attributes>
    </link>
        <link id="58" from="177355952" to="177355954" length="113.657" freespeed="4.166666666666667" capacity="600" permlanes="1" oneway="1" modes="car">
            <attributes>
                <attribute name="highway" class="java.lang.String">residential</attribute>
      </attributes>
    </link>
        <link id="59" from="177355954" to="177342365" length="111.852" freespeed="4.166666666666667" capacity="600" permlanes="1" oneway="1" modes="car">
            <attributes>
                <attribute name="highway" class="java.lang.String">residential</attribute>
      </attributes>
    </link>
        <link id="60" from="177355954" to="177355957" length="111.077" freespeed="4.166666666666667" capacity="600" permlanes="1" oneway="1" modes="car">
            <attributes>
                <attribute name="highway" class="java.lang.String">residential</attribute>
      </attributes>
    </link>
        <link id="61" from="177352810" to="177355957" length="113.49099999999999" freespeed="4.166666666666667" capacity="600" permlanes="1" oneway="1" modes="car">
            <attributes>
                <attribute name="highway" class="java.lang.String">residential</attribute>
      </attributes>
    </link>
        <link id="62" from="177355957" to="177355959" length="111.77" freespeed="4.166666666666667" capacity="600" permlanes="1" oneway="1" modes="car">
            <attributes>
                <attribute name="highway" class="java.lang.String">residential</attribute>
      </attributes>
    </link>
        <link id="63" from="177355957" to="177342366" length="109.87" freespeed="4.166666666666667" capacity="600" permlanes="1" oneway="1" modes="car">
            <attributes>
                <attribute name="highway" class="java.lang.String">residential</attribute>
      </attributes>
    </link>
        <link id="64" from="177283214" to="177283215" length="88.472" freespeed="4.166666666666667" capacity="600" permlanes="1" oneway="1" modes="car">
            <attributes>
                <attribute name="highway" class="java.lang.String">residential</attribute>
      </attributes>
    </link>
        <link id="65" from="177283214" to="177356801" length="126.091" freespeed="4.166666666666667" capacity="600" permlanes="1" oneway="1" modes="car">
            <attributes>
                <attribute name="highway" class="java.lang.String">residential</attribute>
      </attributes>
    </link>
        <link id="66" from="177283215" to="177283216" length="155.868" freespeed="4.166666666666667" capacity="600" permlanes="1" oneway="1" modes="car">
            <attributes>
                <attribute name="highway" class="java.lang.String">residential</attribute>
      </attributes>
    </link>
        <link id="67" from="177283215" to="177387551" length="94.556" freespeed="4.166666666666667" capacity="600" permlanes="1" oneway="1" modes="car">
            <attributes>
                <attribute name="highway" class="java.lang.String">residential</attribute>
      </attributes>
    </link>
        <link id="68" from="177283216" to="177283218" length="203.69" freespeed="4.166666666666667" capacity="600" permlanes="1" oneway="1" modes="car">
            <attributes>
                <attribute name="highway" class="java.lang.String">residential</attribute>
      </attributes>
    </link>
        <link id="69" from="177283216" to="177386276" length="90.43900000000001" freespeed="4.166666666666667" capacity="600" permlanes="1" oneway="1" modes="car">
            <attributes>
                <attribute name="highway" class="java.lang.String">residential</attribute>
      </attributes>
    </link>
        <link id="70" from="177283218" to="177283220" length="39.241" freespeed="4.166666666666667" capacity="600" permlanes="1" oneway="1" modes="car">
            <attributes>
                <attribute name="highway" class="java.lang.String">residential</attribute>
      </attributes>
    </link>
        <link id="71" from="177283220" to="177283222" length="81.041" freespeed="4.166666666666667" capacity="600" permlanes="1" oneway="1" modes="car">
            <attributes>
                <attribute name="highway" class="java.lang.String">residential</attribute>
      </attributes>
    </link>
        <link id="72" from="1837455507" to="439950110" length="267.661" freespeed="22.22222222222222" capacity="1500" permlanes="1" oneway="1" modes="car">
            <attributes>
                <attribute name="highway" class="java.lang.String">motorway_link</attribute>
      </attributes>
    </link>
        <link id="73" from="1837455507" to="439950103" length="126.92299999999999" freespeed="22.22222222222222" capacity="1000" permlanes="1" oneway="1" modes="car">
            <attributes>
                <attribute name="highway" class="java.lang.String">primary</attribute>
      </attributes>
    </link>
        <link id="74" from="439950110" to="456522880" length="978.404" freespeed="33.333333333333336" capacity="2000" permlanes="2" oneway="1" modes="car">
            <attributes>
                <attribute name="highway" class="java.lang.String">motorway</attribute>
      </attributes>
    </link>
        <link id="75" from="439950103" to="439950069" length="31.076" freespeed="22.22222222222222" capacity="1000" permlanes="1" oneway="1" modes="car">
            <attributes>
                <attribute name="highway" class="java.lang.String">primary</attribute>
      </attributes>
    </link>
        <link id="76" from="439950103" to="439950110" length="147.245" freespeed="33.333333333333336" capacity="2000" permlanes="2" oneway="1" modes="car">
            <attributes>
                <attribute name="highway" class="java.lang.String">motorway</attribute>
      </attributes>
    </link>
        <link id="77" from="177283222" to="177283224" length="85.888" freespeed="4.166666666666667" capacity="600" permlanes="1" oneway="1" modes="car">
            <attributes>
                <attribute name="highway" class="java.lang.String">residential</attribute>
      </attributes>
    </link>
        <link id="78" from="439950880" to="439950076" length="339.064" freespeed="13.88888888888889" capacity="1500" permlanes="1" oneway="1" modes="car">
            <attributes>
                <attribute name="highway" class="java.lang.String">trunk_link</attribute>
      </attributes>
    </link>
        <link id="79" from="439950880" to="439950901" length="134.496" freespeed="22.22222222222222" capacity="1000" permlanes="1" oneway="1" modes="car">
            <attributes>
                <attribute name="highway" class="java.lang.String">primary</attribute>
      </attributes>
    </link>
        <link id="80" from="177283224" to="177305073" length="216.90599999999998" freespeed="4.166666666666667" capacity="600" permlanes="1" oneway="1" modes="car">
            <attributes>
                <attribute name="highway" class="java.lang.String">residential</attribute>
      </attributes>
    </link>
        <link id="81" from="177371287" to="177244371" length="85.819" freespeed="22.22222222222222" capacity="1000" permlanes="1" oneway="1" modes="car">
            <attributes>
                <attribute name="highway" class="java.lang.String">primary</attribute>
      </attributes>
    </link>
        <link id="82" from="177371287" to="564996675" length="98.366" freespeed="22.22222222222222" capacity="1500" permlanes="1" oneway="1" modes="car">
            <attributes>
                <attribute name="highway" class="java.lang.String">motorway_link</attribute>
      </attributes>
    </link>
        <link id="83" from="177244371" to="564996536" length="16.408" freespeed="22.22222222222222" capacity="1000" permlanes="1" oneway="1" modes="car">
            <attributes>
                <attribute name="highway" class="java.lang.String">primary</attribute>
      </attributes>
    </link>
        <link id="84" from="177244371" to="564996675" length="70.593" freespeed="22.22222222222222" capacity="1500" permlanes="1" oneway="1" modes="car">
            <attributes>
                <attribute name="highway" class="java.lang.String">motorway_link</attribute>
      </attributes>
    </link>
        <link id="85" from="177305073" to="817841248" length="91.99799999999999" freespeed="6.944444444444445" capacity="600" permlanes="1" oneway="1" modes="car">
            <attributes>
                <attribute name="highway" class="java.lang.String">tertiary</attribute>
      </attributes>
    </link>
        <link id="86" from="177234074" to="177305200" length="33.498999999999995" freespeed="4.166666666666667" capacity="600" permlanes="1" oneway="1" modes="car">
            <attributes>
                <attribute name="highway" class="java.lang.String">residential</attribute>
      </attributes>
    </link>
        <link id="87" from="177305200" to="177305202" length="79.822" freespeed="4.166666666666667" capacity="600" permlanes="1" oneway="1" modes="car">
            <attributes>
                <attribute name="highway" class="java.lang.String">residential</attribute>
      </attributes>
    </link>
        <link id="88" from="490307743" to="3708251745" length="173.85500000000002" freespeed="4.166666666666667" capacity="600" permlanes="1" oneway="1" modes="car">
            <attributes>
                <attribute name="highway" class="java.lang.String">residential</attribute>
      </attributes>
    </link>
        <link id="89" from="490307743" to="5641348219" length="27.928999999999995" freespeed="4.166666666666667" capacity="600" permlanes="1" oneway="1" modes="car">
            <attributes>
                <attribute name="highway" class="java.lang.String">residential</attribute>
      </attributes>
    </link>
        <link id="90" from="3708251745" to="177349950" length="48.852999999999994" freespeed="4.166666666666667" capacity="600" permlanes="1" oneway="1" modes="car">
            <attributes>
                <attribute name="highway" class="java.lang.String">residential</attribute>
      </attributes>
    </link>
        <link id="91" from="5641348219" to="6907446110" length="127.17500000000001" freespeed="8.333333333333334" capacity="1000" permlanes="1" oneway="1" modes="car">
            <attributes>
                <attribute name="highway" class="java.lang.String">secondary</attribute>
      </attributes>
    </link>
        <link id="92" from="564996262" to="564996243" length="131.333" freespeed="22.22222222222222" capacity="1000" permlanes="1" oneway="1" modes="car">
            <attributes>
                <attribute name="highway" class="java.lang.String">primary</attribute>
      </attributes>
    </link>
        <link id="93" from="177381545" to="177283224" length="145.257" freespeed="4.166666666666667" capacity="600" permlanes="1" oneway="1" modes="car">
            <attributes>
                <attribute name="highway" class="java.lang.String">residential</attribute>
      </attributes>
    </link>
        <link id="94" from="177298358" to="177252848" length="88.885" freespeed="8.333333333333334" capacity="1000" permlanes="1" oneway="1" modes="car">
            <attributes>
                <attribute name="highway" class="java.lang.String">secondary</attribute>
      </attributes>
    </link>
        <link id="95" from="177322157" to="177249743" length="111.61500000000001" freespeed="4.166666666666667" capacity="600" permlanes="1" oneway="1" modes="car">
            <attributes>
                <attribute name="highway" class="java.lang.String">residential</attribute>
      </attributes>
    </link>
        <link id="96" from="177322157" to="177359992" length="114.035" freespeed="8.333333333333334" capacity="1000" permlanes="1" oneway="1" modes="car">
            <attributes>
                <attribute name="highway" class="java.lang.String">secondary</attribute>
      </attributes>
    </link>
        <link id="97" from="177249743" to="177249745" length="110.362" freespeed="8.333333333333334" capacity="1000" permlanes="1" oneway="1" modes="car">
            <attributes>